[General]
network = Tictoc1

cmdenv-express-mode = false
**.cmdenv-log-level = info

sim-time-limit = 1s
